functions/OneTimeScripts/validationAgainstOpenDSS_MATLAB/ieee123_1ph_created/results/powers14.csv
Element, Terminal, P(kW), Q(kvar),  P_Normal, Q_Normal, P_Emergency, Q_Emergency
"Line.L115"             ,   1,       661.5,       270.3,         0.0,         0.0,         0.0,         0.0
"Line.L115"             ,   2,      -659.4,      -266.2
"Line.L1"               ,   1,         5.2,         2.6,         0.0,         0.0,         0.0,         0.0
"Line.L1"               ,   2,        -5.2,        -2.6
"Line.L2"               ,   1,        26.1,        13.0,         0.0,         0.0,         0.0,         0.0
"Line.L2"               ,   2,       -26.1,       -13.0
"Line.L3"               ,   1,       617.7,       245.3,         0.0,         0.0,         0.0,         0.0
"Line.L3"               ,   2,      -616.4,      -242.6
"Line.L4"               ,   1,        10.4,         5.2,         0.0,         0.0,         0.0,         0.0
"Line.L4"               ,   2,       -10.4,        -5.2
"Line.L5"               ,   1,        15.6,         7.8,         0.0,         0.0,         0.0,         0.0
"Line.L5"               ,   2,       -15.6,        -7.8
"Line.L6"               ,   1,        10.4,         5.2,         0.0,         0.0,         0.0,         0.0
"Line.L6"               ,   2,       -10.4,        -5.2
"Line.L7"               ,   1,       611.2,       240.0,         0.0,         0.0,         0.0,         0.0
"Line.L7"               ,   2,      -610.3,      -238.2
"Line.L8"               ,   1,         5.2,         2.6,         0.0,         0.0,         0.0,         0.0
"Line.L8"               ,   2,        -5.2,        -2.6
"Line.L9"               ,   1,        12.7,        13.0,         0.0,         0.0,         0.0,         0.0
"Line.L9"               ,   2,       -12.7,       -13.0
"Line.L10"              ,   1,       592.3,       222.5,         0.0,         0.0,         0.0,         0.0
"Line.L10"              ,   2,      -591.1,      -220.0
"Line.L11"              ,   1,        15.6,         7.8,         0.0,         0.0,         0.0,         0.0
"Line.L11"              ,   2,       -15.6,        -7.8
"Line.L12"              ,   1,        26.1,        13.0,         0.0,         0.0,         0.0,         0.0
"Line.L12"              ,   2,       -26.1,       -13.0
"Line.L13"              ,   1,       208.3,       171.4,         0.0,         0.0,         0.0,         0.0
"Line.L13"              ,   2,      -207.7,      -170.1
"Line.L14"              ,   1,        10.4,         5.2,         0.0,         0.0,         0.0,         0.0
"Line.L14"              ,   2,       -10.4,        -5.2
"Line.L15"              ,   1,         5.2,         2.6,         0.0,         0.0,         0.0,         0.0
"Line.L15"              ,   2,        -5.2,        -2.6
"Line.L16"              ,   1,        10.4,         5.2,         0.0,         0.0,         0.0,         0.0
"Line.L16"              ,   2,       -10.4,        -5.2
"Line.L17"              ,   1,         5.2,         2.6,         0.0,         0.0,         0.0,         0.0
"Line.L17"              ,   2,        -5.2,        -2.6
"Line.L18"              ,   1,        20.9,        10.4,         0.0,         0.0,         0.0,         0.0
"Line.L18"              ,   2,       -20.9,       -10.4
"Line.L19"              ,   1,        59.7,        36.6,         0.0,         0.0,         0.0,         0.0
"Line.L19"              ,   2,       -59.7,       -36.5
"Line.L20"              ,   1,        10.4,         5.2,         0.0,         0.0,         0.0,         0.0
"Line.L20"              ,   2,       -10.4,        -5.2
"Line.L21"              ,   1,        10.4,         5.2,         0.0,         0.0,         0.0,         0.0
"Line.L21"              ,   2,       -10.4,        -5.2
"Line.L22"              ,   1,        49.3,        31.3,         0.0,         0.0,         0.0,         0.0
"Line.L22"              ,   2,       -49.3,       -31.3
"Line.L23"              ,   1,        10.4,         5.2,         0.0,         0.0,         0.0,         0.0
"Line.L23"              ,   2,       -10.4,        -5.2
"Line.L24"              ,   1,        38.8,        26.1,         0.0,         0.0,         0.0,         0.0
"Line.L24"              ,   2,       -38.8,       -26.1
"Line.L25"              ,   1,        20.9,        10.4,         0.0,         0.0,         0.0,         0.0
"Line.L25"              ,   2,       -20.9,       -10.4
"Line.L26"              ,   1,        18.0,        15.6,         0.0,         0.0,         0.0,         0.0
"Line.L26"              ,   2,       -18.0,       -15.6
"Line.L27"              ,   1,        10.4,         5.2,         0.0,         0.0,         0.0,         0.0
"Line.L27"              ,   2,       -10.4,        -5.2
"Line.L28"              ,   1,        10.4,         5.2,         0.0,         0.0,         0.0,         0.0
"Line.L28"              ,   2,       -10.4,        -5.2
"Line.L29"              ,   1,        10.4,         5.2,         0.0,         0.0,         0.0,         0.0
"Line.L29"              ,   2,       -10.4,        -5.2
"Line.L30"              ,   1,        20.9,        10.4,         0.0,         0.0,         0.0,         0.0
"Line.L30"              ,   2,       -20.9,       -10.4
"Line.L31"              ,   1,        10.4,         5.2,         0.0,         0.0,         0.0,         0.0
"Line.L31"              ,   2,       -10.4,        -5.2
"Line.L32"              ,   1,         0.0,        -0.0,         0.0,         0.0,         0.0,         0.0
"Line.L32"              ,   2,         0.0,        -0.0
"Line.L33"              ,   1,         5.2,         2.6,         0.0,         0.0,         0.0,         0.0
"Line.L33"              ,   2,        -5.2,        -2.6
"Line.L34"              ,   1,        15.6,         7.8,         0.0,         0.0,         0.0,         0.0
"Line.L34"              ,   2,       -15.6,        -7.8
"Line.L35"              ,   1,        20.9,        10.4,         0.0,         0.0,         0.0,         0.0
"Line.L35"              ,   2,       -20.9,       -10.4
"Line.L36"              ,   1,        95.7,       107.2,         0.0,         0.0,         0.0,         0.0
"Line.L36"              ,   2,       -95.7,      -107.1
"Line.L37"              ,   1,        10.4,         5.2,         0.0,         0.0,         0.0,         0.0
"Line.L37"              ,   2,       -10.4,        -5.2
"Line.L38"              ,   1,        10.4,         5.2,         0.0,         0.0,         0.0,         0.0
"Line.L38"              ,   2,       -10.4,        -5.2
"Line.L39"              ,   1,         5.2,         2.6,         0.0,         0.0,         0.0,         0.0
"Line.L39"              ,   2,        -5.2,        -2.6
"Line.L40"              ,   1,         5.2,         2.6,         0.0,         0.0,         0.0,         0.0
"Line.L40"              ,   2,        -5.2,        -2.6
"Line.L41"              ,   1,        90.4,       104.5,         0.0,         0.0,         0.0,         0.0
"Line.L41"              ,   2,       -90.4,      -104.4
"Line.L42"              ,   1,        10.4,         5.2,         0.0,         0.0,         0.0,         0.0
"Line.L42"              ,   2,       -10.4,        -5.2
"Line.L43"              ,   1,        74.8,        96.6,         0.0,         0.0,         0.0,         0.0
"Line.L43"              ,   2,       -74.7,       -96.5
"Line.L44"              ,   1,        10.4,         5.2,         0.0,         0.0,         0.0,         0.0
"Line.L44"              ,   2,       -10.4,        -5.2
"Line.L45"              ,   1,        64.3,        91.3,         0.0,         0.0,         0.0,         0.0
"Line.L45"              ,   2,       -64.3,       -91.3
"Line.L46"              ,   1,         5.2,         2.6,         0.0,         0.0,         0.0,         0.0
"Line.L46"              ,   2,        -5.2,        -2.6
"Line.L47"              ,   1,       -15.3,        39.1,         0.0,         0.0,         0.0,         0.0
"Line.L47"              ,   2,        15.3,       -39.1
"Line.L48"              ,   1,        52.1,        32.6,         0.0,         0.0,         0.0,         0.0
"Line.L48"              ,   2,       -52.1,       -32.6
"Line.L49"              ,   1,        15.6,         7.8,         0.0,         0.0,         0.0,         0.0
"Line.L49"              ,   2,       -15.6,        -7.8
"Line.L50"              ,   1,         5.2,         2.6,         0.0,         0.0,         0.0,         0.0
"Line.L50"              ,   2,        -5.2,        -2.6
"Line.L51"              ,   1,         0.0,        -0.0,         0.0,         0.0,         0.0,         0.0
"Line.L51"              ,   2,         0.0,         0.0
"Line.L52"              ,   1,       345.8,        29.4,         0.0,         0.0,         0.0,         0.0
"Line.L52"              ,   2,      -345.5,       -28.9
"Line.L53"              ,   1,       335.1,        23.6,         0.0,         0.0,         0.0,         0.0
"Line.L53"              ,   2,      -335.0,       -23.3
"Line.L54"              ,   1,        10.4,         5.2,         0.0,         0.0,         0.0,         0.0
"Line.L54"              ,   2,       -10.4,        -5.2
"Line.L55"              ,   1,       324.5,        18.1,         0.0,         0.0,         0.0,         0.0
"Line.L55"              ,   2,      -324.2,       -17.4
"Line.L56"              ,   1,         5.2,         2.6,         0.0,         0.0,         0.0,         0.0
"Line.L56"              ,   2,        -5.2,        -2.6
"Line.L57"              ,   1,         3.8,         5.2,         0.0,         0.0,         0.0,         0.0
"Line.L57"              ,   2,        -3.8,        -5.2
"Line.L58"              ,   1,       320.4,        12.1,         0.0,         0.0,         0.0,         0.0
"Line.L58"              ,   2,      -319.6,       -10.5
"Line.L59"              ,   1,         5.2,         2.6,         0.0,         0.0,         0.0,         0.0
"Line.L59"              ,   2,        -5.2,        -2.6
"Line.L60"              ,   1,         0.0,        -0.0,         0.0,         0.0,         0.0,         0.0
"Line.L60"              ,   2,        -0.0,         0.0
"Line.L61"              ,   1,        49.9,        54.7,         0.0,         0.0,         0.0,         0.0
"Line.L61"              ,   2,       -49.9,       -54.7
"Line.L62"              ,   1,        39.4,        49.5,         0.0,         0.0,         0.0,         0.0
"Line.L62"              ,   2,       -39.4,       -49.5
"Line.L63"              ,   1,        29.0,        44.3,         0.0,         0.0,         0.0,         0.0
"Line.L63"              ,   2,       -29.0,       -44.3
"Line.L64"              ,   1,         9.4,        35.2,         0.0,         0.0,         0.0,         0.0
"Line.L64"              ,   2,        -9.4,       -35.2
"Line.L65"              ,   1,        19.6,         9.1,         0.0,         0.0,         0.0,         0.0
"Line.L65"              ,   2,       -19.6,        -9.1
"Line.L66"              ,   1,        31.3,        15.7,         0.0,         0.0,         0.0,         0.0
"Line.L66"              ,   2,       -31.3,       -15.7
"Line.L67"              ,   1,       131.4,      -120.6,         0.0,         0.0,         0.0,         0.0
"Line.L67"              ,   2,      -131.3,       120.8
"Line.L68"              ,   1,       101.5,        57.6,         0.0,         0.0,         0.0,         0.0
"Line.L68"              ,   2,      -101.5,       -57.5
"Line.L69"              ,   1,        26.1,        13.0,         0.0,         0.0,         0.0,         0.0
"Line.L69"              ,   2,       -26.1,       -13.0
"Line.L70"              ,   1,        15.6,         7.8,         0.0,         0.0,         0.0,         0.0
"Line.L70"              ,   2,       -15.6,        -7.8
"Line.L71"              ,   1,        10.4,         5.2,         0.0,         0.0,         0.0,         0.0
"Line.L71"              ,   2,       -10.4,        -5.2
"Line.L72"              ,   1,        31.3,        15.7,         0.0,         0.0,         0.0,         0.0
"Line.L72"              ,   2,       -31.3,       -15.6
"Line.L73"              ,   1,       100.0,      -136.4,         0.0,         0.0,         0.0,         0.0
"Line.L73"              ,   2,       -99.9,       136.6
"Line.L74"              ,   1,        20.9,        10.4,         0.0,         0.0,         0.0,         0.0
"Line.L74"              ,   2,       -20.9,       -10.4
"Line.L75"              ,   1,        10.4,         5.2,         0.0,         0.0,         0.0,         0.0
"Line.L75"              ,   2,       -10.4,        -5.2
"Line.L76"              ,   1,        63.2,      -167.5,         0.0,         0.0,         0.0,         0.0
"Line.L76"              ,   2,       -63.1,       167.7
"Line.L77"              ,   1,        54.5,       -16.0,         0.0,         0.0,         0.0,         0.0
"Line.L77"              ,   2,       -54.5,        16.1
"Line.L78"              ,   1,        52.6,      -173.0,         0.0,         0.0,         0.0,         0.0
"Line.L78"              ,   2,       -52.6,       173.0
"Line.L79"              ,   1,        10.4,         5.2,         0.0,         0.0,         0.0,         0.0
"Line.L79"              ,   2,       -10.4,        -5.2
"Line.L80"              ,   1,        42.2,      -178.2,         0.0,         0.0,         0.0,         0.0
"Line.L80"              ,   2,       -42.0,       178.6
"Line.L81"              ,   1,        31.6,      -183.8,         0.0,         0.0,         0.0,         0.0
"Line.L81"              ,   2,       -31.5,       183.9
"Line.L82"              ,   1,        15.8,      -191.8,         0.0,         0.0,         0.0,         0.0
"Line.L82"              ,   2,       -15.7,       192.0
"Line.L83"              ,   1,        15.7,         7.8,         0.0,         0.0,         0.0,         0.0
"Line.L83"              ,   2,       -15.6,        -7.8
"Line.L84"              ,   1,         5.3,      -197.2,         0.0,         0.0,         0.0,         0.0
"Line.L84"              ,   2,        -5.2,       197.4
"Line.L85"              ,   1,        10.4,         5.2,         0.0,         0.0,         0.0,         0.0
"Line.L85"              ,   2,       -10.4,        -5.2
"Line.L86"              ,   1,        49.3,       -18.7,         0.0,         0.0,         0.0,         0.0
"Line.L86"              ,   2,       -49.2,        18.7
"Line.L87"              ,   1,        10.4,       -11.5,         0.0,         0.0,         0.0,         0.0
"Line.L87"              ,   2,       -10.4,        11.5
"Line.L88"              ,   1,        41.7,       -12.5,         0.0,         0.0,         0.0,         0.0
"Line.L88"              ,   2,       -41.7,        12.5
"Line.L89"              ,   1,        10.4,       -11.5,         0.0,         0.0,         0.0,         0.0
"Line.L89"              ,   2,       -10.4,        11.5
"Line.L90"              ,   1,        31.3,        -1.0,         0.0,         0.0,         0.0,         0.0
"Line.L90"              ,   2,       -31.3,         1.0
"Line.L91"              ,   1,        10.4,       -11.5,         0.0,         0.0,         0.0,         0.0
"Line.L91"              ,   2,       -10.4,        11.5
"Line.L92"              ,   1,        20.9,        10.4,         0.0,         0.0,         0.0,         0.0
"Line.L92"              ,   2,       -20.9,       -10.4
"Line.L93"              ,   1,        10.4,         5.2,         0.0,         0.0,         0.0,         0.0
"Line.L93"              ,   2,       -10.4,        -5.2
"Line.L94"              ,   1,        10.4,         5.2,         0.0,         0.0,         0.0,         0.0
"Line.L94"              ,   2,       -10.4,        -5.2
"Line.L95"              ,   1,         5.2,         2.6,         0.0,         0.0,         0.0,         0.0
"Line.L95"              ,   2,        -5.2,        -2.6
"Line.L96"              ,   1,        18.0,        15.6,         0.0,         0.0,         0.0,         0.0
"Line.L96"              ,   2,       -17.9,       -15.6
"Line.L97"              ,   1,         7.5,        10.4,         0.0,         0.0,         0.0,         0.0
"Line.L97"              ,   2,        -7.5,       -10.4
"Line.L98"              ,   1,        -2.9,         5.2,         0.0,         0.0,         0.0,         0.0
"Line.L98"              ,   2,         2.9,        -5.2
"Line.L99"              ,   1,         0.0,        -0.0,         0.0,         0.0,         0.0,         0.0
"Line.L99"              ,   2,         0.0,         0.0
"Line.L118"             ,   1,        83.6,        41.9,         0.0,         0.0,         0.0,         0.0
"Line.L118"             ,   2,       -83.5,       -41.8
"Line.L100"             ,   1,        26.1,        13.1,         0.0,         0.0,         0.0,         0.0
"Line.L100"             ,   2,       -26.1,       -13.0
"Line.L101"             ,   1,        57.4,        28.8,         0.0,         0.0,         0.0,         0.0
"Line.L101"             ,   2,       -57.4,       -28.7
"Line.L102"             ,   1,        20.9,        10.4,         0.0,         0.0,         0.0,         0.0
"Line.L102"             ,   2,       -20.9,       -10.4
"Line.L103"             ,   1,        10.4,         5.2,         0.0,         0.0,         0.0,         0.0
"Line.L103"             ,   2,       -10.4,        -5.2
"Line.L104"             ,   1,        20.9,        10.4,         0.0,         0.0,         0.0,         0.0
"Line.L104"             ,   2,       -20.9,       -10.4
"Line.L105"             ,   1,        36.6,        18.3,         0.0,         0.0,         0.0,         0.0
"Line.L105"             ,   2,       -36.6,       -18.3
"Line.L106"             ,   1,        10.4,         5.2,         0.0,         0.0,         0.0,         0.0
"Line.L106"             ,   2,       -10.4,        -5.2
"Line.L107"             ,   1,        36.6,        18.3,         0.0,         0.0,         0.0,         0.0
"Line.L107"             ,   2,       -36.5,       -18.3
"Line.L108"             ,   1,         0.0,        -0.0,         0.0,         0.0,         0.0,         0.0
"Line.L108"             ,   2,         0.0,         0.0
"Line.L109"             ,   1,        26.1,        13.1,         0.0,         0.0,         0.0,         0.0
"Line.L109"             ,   2,       -26.1,       -13.0
"Line.L110"             ,   1,         5.2,         2.6,         0.0,         0.0,         0.0,         0.0
"Line.L110"             ,   2,        -5.2,        -2.6
"Line.L111"             ,   1,        20.9,        10.4,         0.0,         0.0,         0.0,         0.0
"Line.L111"             ,   2,       -20.9,       -10.4
"Line.L112"             ,   1,        15.6,         7.8,         0.0,         0.0,         0.0,         0.0
"Line.L112"             ,   2,       -15.6,        -7.8
"Line.L113"             ,   1,         5.2,         2.6,         0.0,         0.0,         0.0,         0.0
"Line.L113"             ,   2,        -5.2,        -2.6
"Line.L114"             ,   1,       127.1,       123.1,         0.0,         0.0,         0.0,         0.0
"Line.L114"             ,   2,      -127.0,      -122.9
"Line.L116"             ,   1,       356.7,        35.6,         0.0,         0.0,         0.0,         0.0
"Line.L116"             ,   2,      -356.2,       -34.6
"Line.L117"             ,   1,       264.5,       -46.8,         0.0,         0.0,         0.0,         0.0
"Line.L117"             ,   2,      -264.2,        47.3
"Line.SW1"              ,   1,       661.5,       270.3,         0.0,         0.0,         0.0,         0.0
"Line.SW1"              ,   2,      -661.5,      -270.3
"Line.SW2"              ,   1,       356.7,        35.6,         0.0,         0.0,         0.0,         0.0
"Line.SW2"              ,   2,      -356.7,       -35.6
"Line.SW3"              ,   1,       127.1,       123.1,         0.0,         0.0,         0.0,         0.0
"Line.SW3"              ,   2,      -127.1,      -123.1
"Line.SW4"              ,   1,       264.5,       -46.8,         0.0,         0.0,         0.0,         0.0
"Line.SW4"              ,   2,      -264.5,        46.8
"Line.SW5"              ,   1,        83.6,        41.9,         0.0,         0.0,         0.0,         0.0
"Line.SW5"              ,   2,       -83.6,       -41.9
"Line.XFM1"             ,   1,         0.0,         0.0,         0.0,         0.0,         0.0,         0.0
"Line.XFM1"             ,   2,         0.0,         0.0
"Transformer.REG1A"     ,   1,       661.5,       270.3,         0.0,         0.0,         0.0,         0.0
"Transformer.REG1A"     ,   2,      -661.5,      -270.3
"Transformer.REG2A"     ,   1,        15.6,         7.8,         0.0,         0.0,         0.0,         0.0
"Transformer.REG2A"     ,   2,       -15.6,        -7.8
"Transformer.REG3A"     ,   1,        20.9,        10.4,         0.0,         0.0,         0.0,         0.0
"Transformer.REG3A"     ,   2,       -20.9,       -10.4
"Transformer.REG4A"     ,   1,       264.5,       -46.8,         0.0,         0.0,         0.0,         0.0
"Transformer.REG4A"     ,   2,      -264.5,        46.8
"Load.S1"               ,   1,        10.4,         5.2
"Load.S2"               ,   1,         5.2,         2.6
"Load.S4"               ,   1,        10.4,         5.2
"Load.S5"               ,   1,         5.2,         2.6
"Load.S6"               ,   1,        10.4,         5.2
"Load.S7"               ,   1,         5.2,         2.6
"Load.S9"               ,   1,        10.4,         5.2
"Load.S10"              ,   1,         5.2,         2.6
"Load.S11"              ,   1,        10.4,         5.2
"Load.S12"              ,   1,         5.2,         2.6
"Load.S16"              ,   1,        10.4,         5.2
"Load.S17"              ,   1,         5.2,         2.6
"Load.S19"              ,   1,        10.4,         5.2
"Load.S20"              ,   1,        10.4,         5.2
"Load.S22"              ,   1,        10.4,         5.2
"Load.S24"              ,   1,        10.4,         5.2
"Load.S28"              ,   1,        10.4,         5.2
"Load.S29"              ,   1,        10.4,         5.2
"Load.S30"              ,   1,        10.4,         5.2
"Load.S31"              ,   1,         5.2,         2.6
"Load.S32"              ,   1,         5.2,         2.6
"Load.S33"              ,   1,        10.4,         5.2
"Load.S34"              ,   1,        10.4,         5.2
"Load.S35"              ,   1,        10.4,         5.2
"Load.S37"              ,   1,        10.4,         5.2
"Load.S38"              ,   1,         5.2,         2.6
"Load.S39"              ,   1,         5.2,         2.6
"Load.S41"              ,   1,         5.2,         2.6
"Load.S42"              ,   1,         5.2,         2.6
"Load.S43"              ,   1,        10.4,         5.2
"Load.S45"              ,   1,         5.2,         2.6
"Load.S46"              ,   1,         5.2,         2.6
"Load.S47"              ,   1,        27.4,        19.6
"Load.S48"              ,   1,        54.7,        39.1
"Load.S49"              ,   1,        36.5,        24.8
"Load.S50"              ,   1,        10.4,         5.2
"Load.S51"              ,   1,         5.2,         2.6
"Load.S52"              ,   1,        10.4,         5.2
"Load.S53"              ,   1,        10.4,         5.2
"Load.S55"              ,   1,         5.2,         2.6
"Load.S56"              ,   1,         5.2,         2.6
"Load.S58"              ,   1,         5.2,         2.6
"Load.S59"              ,   1,         5.2,         2.6
"Load.S60"              ,   1,         5.2,         2.6
"Load.S62"              ,   1,        10.4,         5.2
"Load.S63"              ,   1,        10.4,         5.2
"Load.S64"              ,   1,        19.6,         9.1
"Load.S65"              ,   1,        36.5,        26.1
"Load.S66"              ,   1,        19.6,         9.1
"Load.S68"              ,   1,         5.2,         2.6
"Load.S69"              ,   1,        10.4,         5.2
"Load.S70"              ,   1,         5.2,         2.6
"Load.S71"              ,   1,        10.4,         5.2
"Load.S73"              ,   1,        10.4,         5.2
"Load.S74"              ,   1,        10.4,         5.2
"Load.S75"              ,   1,        10.4,         5.2
"Load.S76"              ,   1,        63.9,        46.9
"Load.S77"              ,   1,        10.4,         5.2
"Load.S79"              ,   1,        10.4,         5.2
"Load.S80"              ,   1,        10.4,         5.2
"Load.S82"              ,   1,        10.4,         5.2
"Load.S83"              ,   1,         5.2,         2.6
"Load.S84"              ,   1,         5.2,         2.6
"Load.S85"              ,   1,        10.4,         5.2
"Load.S86"              ,   1,         5.2,         2.6
"Load.S87"              ,   1,        10.4,         5.2
"Load.S88"              ,   1,        10.4,         5.2
"Load.S90"              ,   1,        10.4,         5.2
"Load.S92"              ,   1,        10.4,         5.2
"Load.S94"              ,   1,        10.4,         5.2
"Load.S95"              ,   1,         5.2,         2.6
"Load.S96"              ,   1,         5.2,         2.6
"Load.S98"              ,   1,        10.4,         5.2
"Load.S99"              ,   1,        10.4,         5.2
"Load.S100"             ,   1,        10.4,         5.2
"Load.S102"             ,   1,         5.2,         2.6
"Load.S103"             ,   1,        10.4,         5.2
"Load.S104"             ,   1,        10.4,         5.2
"Load.S106"             ,   1,        10.4,         5.2
"Load.S107"             ,   1,        10.4,         5.2
"Load.S109"             ,   1,        10.4,         5.2
"Load.S111"             ,   1,         5.2,         2.6
"Load.S112"             ,   1,         5.2,         2.6
"Load.S113"             ,   1,        10.4,         5.2
"Load.S114"             ,   1,         5.2,         2.6
"Generator.C83"         ,   1,         0.0,      -200.0
"Generator.C88"         ,   1,         0.0,       -16.7
"Generator.C90"         ,   1,         0.0,       -16.7
"Generator.C92"         ,   1,         0.0,       -16.7
"PVSystem.9"            ,   1,       -13.3,        -0.0
"PVSystem.28"           ,   1,       -13.3,        -0.0
"PVSystem.48"           ,   1,       -70.0,        -0.0
"PVSystem.58"           ,   1,        -6.7,        -0.0
"PVSystem.65"           ,   1,       -46.7,        -0.0
"PVSystem.76"           ,   1,       -81.7,        -0.0
"PVSystem.87"           ,   1,       -13.3,        -0.0
"PVSystem.100"          ,   1,       -13.3,        -0.0
"Storage.BATTERY9"      ,   1,         0.0,         0.0
"Storage.BATTERY28"     ,   1,         0.0,         0.0
"Storage.BATTERY48"     ,   1,         0.0,         0.0
"Storage.BATTERY58"     ,   1,         0.0,         0.0
"Storage.BATTERY65"     ,   1,         0.0,         0.0
"Storage.BATTERY76"     ,   1,         0.0,         0.0
"Storage.BATTERY87"     ,   1,         0.0,         0.0
"Storage.BATTERY100"    ,   1,         0.0,         0.0
